Package: RMODPATH
Type: Package
Title: Pre- and post-processing of MODPATH files
Version: 0.1.0
Authors@R: person("Cas", "Neyens", role = c("aut", "cre"), email = "cas.neyens@gmail.com")
Author: Cas Neyens <cas.neyens@gmail.com>
Maintainer: Cas Neyens <cas.neyens@gmail.com>
Description: The RMODPATH package provides a set of tools for particle tracking
    with MODPATH.
License: GPL (>= 2)
Imports:
    magrittr,
    readr (>= 2.0.0),
    tibble,
    rui,
    spectralscale,
    RMODFLOW
Remotes:
    rogiersbart/RMODFLOW,
    rogiersbart/spectralscale,
    rogiersbart/rui
Encoding: UTF-8
LazyData: true
URL: https://github.com/cneyens/RMODPATH
BugReports: https://github.com/cneyens/RMODPATH/issues
RoxygenNote: 7.2.3
Depends: 
    R (>= 3.1.0)
Suggests: 
    ggplot2,
    sf
